LAMMPS (28 Feb 2019)
units lj

variable seed equal 1
variable dt equal 0.005
variable tau equal 0.005*100
timestep 0.005

variable rise equal 1.5
variable rise_cut equal 1.5*2.0
variable repulsive_dist equal 1.5
variable repulsive_cut equal 1.5*1.12246204831

atom_style bond
dimension 3
read_data trajectory_polymer_unique_eps6.0_1.lammpsdata
  orthogonal box = (-25 -25 -25) to (25 25 25)
  reading atoms ...
  12 atoms
  reading velocities ...
  12 velocities
  scanning bonds ...
  reading bonds ...
  11 bonds

bond_style harmonic
bond_coeff * 100.0 1.0

pair_style lj/cut 3
# type1 type2 epsilon distance cutoff
pair_coeff * * 3.0 1.5 1.683693072465
pair_coeff 1 5 7.5 1.5
pair_coeff 2 6 7.5 1.5
pair_coeff 3 7 7.5 1.5
pair_coeff 4 8 7.5 1.5
pair_coeff 5 9 7.5 1.5
pair_coeff 6 10 7.5 1.5
pair_coeff 7 11 7.5 1.5
pair_coeff 8 12 7.5 1.5
pair_modify shift yes
special_bonds lj 0.0 0.5 1.0

atom_modify sort 1 0.5

velocity all create 1.0 1
fix 1 all nvt temp 1.0 1.0 0.5
fix 2 all plumed plumedfile helix_sf_f0_eps7.5_10000000.plumed.dat

dump 1 all dcd 5000 helix_sf_pull0.dcd
dump 2 all atom 10000000 helix_sf_pull0.lammpstrj
dump_modify 2 sort id scale no

thermo 1000

run 10000000
  update every 1 steps, delay 10 steps, check yes
Step Temp E_pair E_mol TotEng Press
0            1   -3.6089506   0.35796656    -1.875984 -0.00029796377
Averages over the last 5001 of 10001 rows, steps 5000000 to 10000000:
Temp E_pair E_mol TotEng Press
0.997869 -3.94507 0.47767 -2.09533 1.35816e-06
Loop time of 846.048 on 1 procs for 10000000 steps with 12 atoms
